ieee123/MyCircuit_EXP_CURRENTS.CSV
Element, I1_1, Ang1_1, I1_2, Ang1_2, I1_3, Ang1_3, I1_4, Ang1_4, Iresid1, AngResid1, I2_1, Ang2_1, I2_2, Ang2_2, I2_3, Ang2_3, I2_4, Ang2_4, Iresid2, AngResid2
Vsource.SOURCE,          0,     0.00, 1.62695E-011,    26.57, 2.05795E-011,  -135.00,          0,     0.00, 7.27596E-012,   -90.00,          0,     0.00, 1.62695E-011,  -153.43, 2.05795E-011,    45.00,          0,     0.00, 7.27596E-012,    90.00
Line.LINE1,          0,     0.00,          0,     0.00,          0,     0.00,          0,     0.00,          0,     0.00,          0,     0.00,          0,     0.00,          0,     0.00,          0,     0.00,          0,     0.00
Load.LOAD1,          0,     0.00,          0,     0.00,          0,     0.00,          0,     0.00,          0,     0.00,          0,     0.00,          0,     0.00,          0,     0.00,          0,     0.00,          0,     0.00
